<?xml version="1.0" encoding="UTF-8"?>

<!-- generated on 2026-02-19T09:08:50.237749+05:30 by Eclipse SUMO polyconvert 1.26.0
<polyconvertConfiguration xmlns:xsi="http://www.w3.org/2001/XMLSchema-instance" xsi:noNamespaceSchemaLocation="http://sumo.dlr.de/xsd/polyconvertConfiguration.xsd">

    <input>
        <net-file value="network/map.net.xml"/>
        <osm-files value="osm/map.osm"/>
        <type-file value="network/typemap.xml"/>
    </input>

    <output>
        <output-file value="network/map.poly.xml"/>
    </output>

    <report>
        <xml-validation value="never"/>
    </report>

</polyconvertConfiguration>
-->

<additional xmlns:xsi="http://www.w3.org/2001/XMLSchema-instance" xsi:noNamespaceSchemaLocation="http://sumo.dlr.de/xsd/additional_file.xsd">
    <location netOffset="-412711.09,-1437593.54" convBoundary="-0.00,-0.00,4630.07,8507.62" origBoundary="80.194854,13.002911,80.237670,13.079828" projParameter="+proj=utm +zone=44 +ellps=WGS84 +datum=WGS84 +units=m +no_defs"/>

    <poly id="113676165" type="landuse" color="194,194,130" fill="1" layer="-3.00" shape="1909.899967,3786.380620 1903.488000,3781.777543 1903.897832,3728.601207 1966.139337,3728.408297 1964.569053,3785.060967 1909.899967,3786.380620"/>
    <poly id="118695817" type="amenity" color="237,199,199" fill="1" layer="-1.00" shape="1900.698170,3822.762405 1937.348967,3822.648781 1949.748454,3834.864505 1932.201169,3851.563748 1900.214898,3852.249081 1900.698170,3822.762405"/>
    <poly id="1251974974" type="building" color="255,230,230" fill="1" layer="-1.00" shape="3053.125799,3411.464876 3061.127472,3411.152856 3061.079431,3409.626768 3066.880097,3409.398897 3066.291152,3394.105168 3052.456206,3394.623039 3053.125799,3411.464876"/>
    <poly id="1251974976" type="building" color="255,230,230" fill="1" layer="-1.00" shape="3045.587444,3648.341953 3059.005644,3646.332289 3056.891921,3632.403561 3043.473714,3634.413226 3045.587444,3648.341953"/>
    <poly id="1251974978" type="building" color="255,230,230" fill="1" layer="-1.00" shape="3143.276735,3651.737237 3170.748144,3646.156659 3169.372273,3639.469758 3141.900824,3645.039278 3143.276735,3651.737237"/>
    <poly id="1270408362" type="building" color="255,230,230" fill="1" layer="-1.00" shape="2328.140460,3264.208689 2337.954365,3264.311140 2338.063001,3253.826218 2328.249127,3253.734826 2328.140460,3264.208689"/>
    <poly id="1376937227" type="amenity" color="237,199,199" fill="1" layer="-1.00" shape="1755.700936,3575.696114 1756.283921,3578.359693 1761.290747,3577.415129 1764.322927,3579.606595 1764.092268,3582.151044 1792.584113,3576.975119 1788.922268,3560.573881 1753.339077,3565.882428 1755.700936,3575.696114"/>
    <poly id="1376937227#1" type="building" color="255,230,230" fill="1" layer="-1.00" shape="1755.700936,3575.696114 1756.283921,3578.359693 1761.290747,3577.415129 1764.322927,3579.606595 1764.092268,3582.151044 1792.584113,3576.975119 1788.922268,3560.573881 1753.339077,3565.882428 1755.700936,3575.696114"/>
    <poly id="214202913" type="building" color="255,230,230" fill="1" layer="-1.00" shape="2822.539071,3193.487949 2822.939208,3196.671910 2827.676123,3196.082283 2827.932105,3198.227076 2832.495589,3197.660102 2832.929172,3201.142572 2840.278491,3200.246328 2839.945079,3197.604087 2851.218346,3196.220252 2850.284463,3188.713593 2830.588755,3191.129678 2830.499971,3190.466369 2826.576025,3190.953965 2826.820722,3192.955017 2822.539071,3193.487949"/>
    <poly id="214202947" type="amenity" color="237,199,199" fill="1" layer="-1.00" shape="2577.654022,3584.768435 2572.564832,3534.263434 2508.882358,3545.541191 2512.875179,3588.584272 2577.654022,3584.768435"/>
    <poly id="214202949" type="amenity" color="237,199,199" fill="1" layer="-1.00" shape="2814.459377,3186.058499 2813.795497,3181.736200 2863.229853,3173.887129 2865.520482,3188.888093 2867.169298,3199.688345 2867.656179,3202.872040 2845.729943,3206.356680 2818.221875,3210.721106 2817.723805,3207.426849 2814.459377,3186.058499"/>
    <poly id="214379319" type="leisure" color="207,245,201" fill="1" layer="-2.00" shape="2098.597217,3045.880290 2106.517020,3036.587780 2131.664233,3033.192137 2176.046998,3032.844865 2176.395501,3068.433882 2106.269546,3075.795165 2098.597217,3045.880290"/>
    <poly id="215475865" type="amenity" color="237,199,199" fill="1" layer="-1.00" shape="1719.074871,3531.526808 1709.871680,3459.224909 1643.214374,3469.308412 1652.069635,3534.278794 1661.067899,3540.621211 1719.074871,3531.526808"/>
    <poly id="215475866" type="building" color="255,230,230" fill="1" layer="-1.00" shape="1703.795424,3464.983777 1709.431427,3509.481592 1657.185274,3516.014367 1651.549187,3471.516558 1703.795424,3464.983777"/>
    <poly id="215529551" type="landuse" color="194,194,130" fill="1" layer="-3.00" shape="1904.431288,3809.722495 1912.772360,3810.492933 1945.641281,3811.187345 1934.544972,3803.103913 1905.690582,3803.193364 1902.650983,3805.591685 1904.431288,3809.722495"/>
    <poly id="215569955" type="building" color="255,230,230" fill="1" layer="-1.00" shape="1798.632566,3446.971614 1824.557270,3442.655297 1823.353083,3435.492344 1758.931464,3446.210087 1760.146511,3453.373004 1787.220041,3448.865069 1793.998702,3491.224822 1766.142966,3495.248555 1767.273150,3503.020020 1832.663660,3493.571148 1831.522685,3485.810775 1805.444495,3489.574580 1798.632566,3446.971614"/>
    <poly id="215569970" type="residential" color="235,235,227" fill="1" layer="-3.00" shape="2283.078551,4052.671747 2218.460363,4051.975493 2215.790272,3994.982049 2277.900042,3990.963558 2283.078551,4052.671747"/>
    <poly id="215569972" type="commercial" color="209,209,204" fill="1" layer="-3.00" shape="1742.225273,3433.510125 1758.533088,3523.950006 1841.873576,3512.222417 1848.897185,3504.237641 1850.801644,3495.948015 1839.338356,3418.554581 1742.225273,3433.510125"/>
    <poly id="215569973" type="unknown" color="51,128,255" fill="0" layer="-1.00" shape="1967.112172,3184.809878 2034.874794,3174.237163"/>
    <poly id="215569974" type="unknown" color="51,128,255" fill="0" layer="-1.00" shape="1614.930863,3238.171020 1675.890456,3229.874744"/>
    <poly id="215569975" type="unknown" color="51,128,255" fill="0" layer="-1.00" shape="2136.869272,3159.499885 2247.014845,3143.620801"/>
    <poly id="215569976" type="unknown" color="51,128,255" fill="0" layer="-1.00" shape="2560.530923,3242.479556 2565.009348,3242.465782 2574.812003,3242.435637"/>
    <poly id="215569977" type="unknown" color="51,128,255" fill="0" layer="-1.00" shape="2732.302710,3237.649575 2743.903202,3236.895092"/>
    <poly id="215569978" type="unknown" color="51,128,255" fill="0" layer="-1.00" shape="2709.628652,3237.719179 2696.247596,3237.760264"/>
    <poly id="215569979" type="unknown" color="51,128,255" fill="0" layer="-1.00" shape="3152.995331,3120.113335 3169.316419,3120.505885"/>
    <poly id="215569980" type="unknown" color="51,128,255" fill="0" layer="-1.00" shape="1850.176276,3203.420787 1955.788199,3187.322324"/>
    <poly id="215569981" type="unknown" color="51,128,255" fill="0" layer="-1.00" shape="2290.175360,3144.339205 2364.348130,3151.774832"/>
    <poly id="215569982" type="unknown" color="51,128,255" fill="0" layer="-1.00" shape="1743.884117,3220.428671 1799.184060,3212.371441"/>
    <poly id="215569983" type="unknown" color="51,128,255" fill="0" layer="-1.00" shape="2050.970683,3171.931181 2126.214816,3161.114354"/>
    <poly id="215569985" type="unknown" color="51,128,255" fill="0" layer="-1.00" shape="2404.400229,3153.719562 2454.294349,3157.845979 2521.421843,3162.826350 2530.468100,3167.178153 2536.955291,3175.076931 2539.164833,3181.285677"/>
    <poly id="215762534" type="amenity" color="237,199,199" fill="1" layer="-1.00" shape="2213.238375,3400.575423 2171.082619,3405.549802 2169.370435,3402.403080 2171.176530,3400.849141 2190.513621,3384.199851 2214.521873,3380.785664 2215.160542,3397.981517 2213.238375,3400.575423"/>
    <poly id="215762538" type="amenity" color="237,199,199" fill="1" layer="-1.00" shape="2213.002835,3391.020573 2213.120360,3400.984996 2171.082619,3405.549802 2171.176530,3400.849141 2190.513621,3384.199851 2214.521873,3380.785664 2213.002835,3391.020573"/>
    <poly id="215762538#1" type="building" color="255,230,230" fill="1" layer="-1.00" shape="2213.002835,3391.020573 2213.120360,3400.984996 2171.082619,3405.549802 2171.176530,3400.849141 2190.513621,3384.199851 2214.521873,3380.785664 2213.002835,3391.020573"/>
    <poly id="215762562" type="unknown" color="51,128,255" fill="0" layer="-1.00" shape="1819.896878,3230.234953 1833.153472,3319.401398"/>
    <poly id="215762564" type="amenity" color="237,199,199" fill="1" layer="-1.00" shape="2417.478976,3287.844355 2413.801155,3237.987547 2364.723818,3234.953603 2361.850214,3238.468383 2365.396434,3294.850814 2417.478976,3287.844355"/>
    <poly id="240511206" type="leisure" color="207,245,201" fill="1" layer="-2.00" shape="1928.786870,3390.196658 1935.234734,3430.854262 1940.567124,3433.481008 1987.807089,3428.048138 1959.483388,3417.551730 1936.469079,3398.766241 1928.786870,3390.196658"/>
    <poly id="240512421" type="commercial" color="209,209,204" fill="1" layer="-3.00" shape="2647.323011,3940.698299 2651.458527,3973.798295 2628.175604,3976.667976 2624.029250,3943.579074 2647.323011,3940.698299"/>
    <poly id="27433219" type="amenity" color="237,199,199" fill="1" layer="-1.00" shape="2010.825237,3353.522963 1991.734310,3341.084609 1971.557053,3201.971827 2127.341468,3178.297639 2140.016367,3321.658479 2126.461950,3339.274238 2010.825237,3353.522963"/>
    <poly id="27433220" type="landuse" color="194,194,130" fill="1" layer="-3.00" shape="2038.321373,3685.206752 2036.610433,3647.432107 2099.755942,3637.957623 2104.893167,3682.678220 2038.321373,3685.206752"/>
    <poly id="32616590" type="amenity" color="237,199,199" fill="1" layer="-1.00" shape="1667.976932,3764.370859 1835.607931,3740.027569 1821.035852,3635.746572 1653.404219,3660.089913 1667.976932,3764.370859"/>
    <poly id="32653614" type="commercial" color="209,209,204" fill="1" layer="-3.00" shape="1724.876199,3521.046302 1742.888224,3517.783037 1738.950331,3496.306256 1720.938291,3499.569522 1724.876199,3521.046302"/>
    <poly id="332525434" type="amenity" color="237,199,199" fill="1" layer="-1.00" shape="2894.455645,3625.524034 2934.935244,3639.843963 2947.264848,3668.318055 2902.026746,3679.350419 2898.722432,3666.166345 2893.066545,3664.082338 2894.316050,3661.357827 2882.863341,3657.201306 2894.455645,3625.524034"/>
    <poly id="332525519" type="amenity" color="237,199,199" fill="1" layer="-1.00" shape="2896.423590,3683.857819 2948.847244,3671.608994 2953.161871,3685.409320 2930.894446,3690.664509 2934.289511,3715.781703 2925.286294,3718.319830 2921.288529,3691.147382 2896.751539,3688.258567 2896.423590,3683.857819"/>
    <poly id="339882886" type="amenity" color="237,199,199" fill="1" layer="-1.00" shape="2836.823457,4018.474295 2828.947540,3981.957254 2800.176947,3988.073051 2808.042092,4024.601178 2836.823457,4018.474295"/>
    <poly id="339882888" type="amenity" color="237,199,199" fill="1" layer="-1.00" shape="2844.679601,3967.232800 2858.061138,3963.929157 2853.154061,3944.346444 2839.772550,3947.661148 2844.679601,3967.232800"/>
    <poly id="339882889" type="building" color="255,230,230" fill="1" layer="-1.00" shape="2782.932304,3863.251063 2808.760375,3859.345161 2812.411812,3883.167579 2786.572921,3887.073512 2782.932304,3863.251063"/>
    <poly id="339882890" type="amenity" color="237,199,199" fill="1" layer="-1.00" shape="2793.836051,3610.758201 2814.037380,3621.269288 2814.079037,3634.850450 2833.656691,3640.010578 2836.036215,3662.786226 2816.737750,3663.796545 2815.013909,3663.890309 2817.392804,3686.455825 2796.944066,3687.182135 2793.719591,3654.090396 2784.948575,3654.559695 2779.855639,3641.580194 2780.083709,3638.162052 2779.622600,3632.777401 2793.836051,3610.758201"/>
    <poly id="339882891" type="building" color="255,230,230" fill="1" layer="-1.00" shape="2884.804331,3706.731669 2881.163044,3686.205001 2869.555831,3688.242382 2873.207937,3708.757956 2884.804331,3706.731669"/>
    <poly id="339882892" type="building" color="255,230,230" fill="1" layer="-1.00" shape="2872.472446,3709.368493 2868.017212,3688.623127 2858.578626,3690.631745 2863.033867,3711.377110 2872.472446,3709.368493"/>
    <poly id="341394306" type="amenity" color="237,199,199" fill="1" layer="-1.00" shape="2907.220897,3824.470700 2917.483437,3822.426392 2922.339044,3846.455263 2912.076513,3848.499569 2907.220897,3824.470700"/>
    <poly id="341394306#1" type="building" color="255,230,230" fill="1" layer="-1.00" shape="2907.220897,3824.470700 2917.483437,3822.426392 2922.339044,3846.455263 2912.076513,3848.499569 2907.220897,3824.470700"/>
    <poly id="341394307" type="building" color="255,230,230" fill="1" layer="-1.00" shape="2821.410376,3575.094621 2820.096083,3577.907811 2818.260885,3577.050785 2816.558737,3580.683581 2818.741402,3581.694377 2822.270595,3583.331446 2820.288347,3587.562324 2832.059526,3593.011827 2834.720473,3587.330051 2832.972159,3586.516996 2833.650857,3585.066096 2835.040827,3585.714355 2835.978107,3583.720738 2834.447003,3583.017614 2835.179613,3581.467012 2821.410376,3575.094621"/>
    <poly id="341394308" type="building" color="255,230,230" fill="1" layer="-1.00" shape="2898.535839,3591.115926 2907.694056,3589.605869 2910.587945,3606.861163 2901.429767,3608.382279 2898.535839,3591.115926"/>
    <poly id="341394309" type="building" color="255,230,230" fill="1" layer="-1.00" shape="2930.596984,3625.413309 2940.015836,3627.574278 2941.185684,3623.622389 2937.755061,3608.138285 2925.844805,3610.375642 2930.596984,3625.413309"/>
    <poly id="341394310" type="building" color="255,230,230" fill="1" layer="-1.00" shape="2925.960289,3609.136604 2931.442760,3607.704172 2937.152809,3606.226805 2932.424150,3588.247190 2921.231623,3591.156990 2925.960289,3609.136604"/>
    <poly id="341394311" type="building" color="255,230,230" fill="1" layer="-1.00" shape="2817.423866,3576.378711 2816.769356,3564.502620 2818.731783,3560.880085 2832.032976,3559.600611 2831.360316,3577.165448 2822.620202,3573.575735 2817.423866,3576.378711"/>
    <poly id="343142452" type="tourism" color="207,245,201" fill="1" layer="-2.00" shape="2247.120742,3037.403191 2263.526900,3037.219841 2285.777692,3036.974231 2286.007258,3058.661577 2286.038807,3061.857730 2247.381891,3062.286691 2247.120742,3037.403191"/>
    <poly id="348959275" type="amenity" color="237,199,199" fill="1" layer="-1.00" shape="2754.568878,3260.142990 2766.947436,3262.051512 2770.112280,3243.881806 2756.184296,3242.376185 2754.568878,3260.142990"/>
    <poly id="348959275#1" type="building" color="255,230,230" fill="1" layer="-1.00" shape="2754.568878,3260.142990 2766.947436,3262.051512 2770.112280,3243.881806 2756.184296,3242.376185 2754.568878,3260.142990"/>
    <poly id="348960966" type="amenity" color="237,199,199" fill="1" layer="-1.00" shape="2663.132569,3199.506988 2663.217977,3227.310769 2643.819879,3227.757452 2643.473796,3199.821756 2663.132569,3199.506988"/>
    <poly id="348960969" type="building" color="255,230,230" fill="1" layer="-1.00" shape="2558.122451,3178.639399 2577.215773,3177.806506 2578.101069,3197.700156 2558.996951,3198.544143 2558.122451,3178.639399"/>
    <poly id="348960971" type="building" color="255,230,230" fill="1" layer="-1.00" shape="2582.368216,3178.343647 2592.126499,3177.981855 2592.834954,3196.792200 2583.065834,3197.154026 2582.368216,3178.343647"/>
    <poly id="348960973" type="building" color="255,230,230" fill="1" layer="-1.00" shape="2399.539798,3107.184308 2405.623319,3107.231923 2405.604937,3108.304769 2407.524340,3108.320975 2407.488461,3110.754217 2406.122087,3110.736307 2406.067724,3114.209217 2410.806693,3114.283094 2410.844139,3112.358593 2411.516482,3112.367582 2411.565318,3110.620000 2412.671477,3110.649772 2412.652924,3111.667320 2415.277338,3111.736653 2415.140688,3116.658635 2416.062470,3116.677915 2415.974382,3119.763839 2415.183269,3119.921112 2414.959086,3124.588991 2410.241329,3124.360212 2410.323036,3122.723126 2407.091104,3122.567188 2406.978978,3124.890068 2407.771556,3125.208357 2407.749179,3128.504213 2400.527075,3128.460107 2400.563778,3122.775314 2399.414312,3122.767796 2399.539798,3107.184308"/>
    <poly id="349012394" type="building" color="255,230,230" fill="1" layer="-1.00" shape="2850.924890,3715.981883 2861.620155,3713.593380 2862.400551,3717.019489 2864.448573,3716.559763 2867.735382,3731.104229 2862.046404,3732.371413 2861.370313,3731.134802 2858.021926,3731.875006 2858.406601,3733.554898 2855.058214,3734.295103 2850.924890,3715.981883"/>
    <poly id="349012397" type="building" color="255,230,230" fill="1" layer="-1.00" shape="2869.167090,3731.221496 2864.804706,3712.466589 2871.999775,3710.818760 2876.351277,3729.562642 2869.167090,3731.221496"/>
    <poly id="349012400" type="amenity" color="237,199,199" fill="1" layer="-1.00" shape="2888.530016,3673.419551 2887.249668,3666.079847 2872.965431,3668.556757 2874.245749,3675.885401 2888.530016,3673.419551"/>
    <poly id="349012400#1" type="building" color="255,230,230" fill="1" layer="-1.00" shape="2888.530016,3673.419551 2887.249668,3666.079847 2872.965431,3668.556757 2874.245749,3675.885401 2888.530016,3673.419551"/>
    <poly id="354496966" type="building" color="255,230,230" fill="1" layer="-1.00" shape="2839.141009,3048.488914 2848.648812,3047.763014 2848.061823,3040.222113 2838.554051,3040.959073 2839.141009,3048.488914"/>
    <poly id="354496968" type="building" color="255,230,230" fill="1" layer="-1.00" shape="2863.249461,2996.268656 2875.609930,2995.777339 2875.151753,2984.265620 2862.791279,2984.756937 2863.249461,2996.268656"/>
    <poly id="354497002" type="building" color="255,230,230" fill="1" layer="-1.00" shape="3141.940715,3040.428993 3147.947320,3040.145217 3147.356126,3027.649595 3141.349518,3027.933371 3141.940715,3040.428993"/>
    <poly id="354497008" type="building" color="255,230,230" fill="1" layer="-1.00" shape="3153.581579,2978.293400 3171.666499,2977.441887 3171.469224,2973.206636 3153.384302,2974.058149 3153.581579,2978.293400"/>
    <poly id="354497033" type="building" color="255,230,230" fill="1" layer="-1.00" shape="3142.689230,3051.176706 3153.368829,3050.668526 3153.033018,3043.679840 3142.353382,3044.176960 3142.689230,3051.176706"/>
    <poly id="354497039" type="building" color="255,230,230" fill="1" layer="-1.00" shape="2914.389874,2993.015297 2922.684383,2992.680228 2922.062290,2977.209647 2913.767776,2977.544716 2914.389874,2993.015297"/>
    <poly id="354497042" type="building" color="255,230,230" fill="1" layer="-1.00" shape="3145.362217,2999.685780 3150.913462,2999.425515 3150.484112,2990.214122 3144.922021,2990.474420 3145.362217,2999.685780"/>
    <poly id="354497050" type="building" color="255,230,230" fill="1" layer="-1.00" shape="3154.474926,3008.063301 3173.112821,3007.199041 3172.753977,2999.768039 3154.126954,3000.643326 3154.474926,3008.063301"/>
    <poly id="354497052" type="building" color="255,230,230" fill="1" layer="-1.00" shape="3139.486875,3000.345184 3144.235786,3000.120547 3143.771910,2990.256738 3139.022998,2990.481375 3139.486875,3000.345184"/>
    <poly id="354497073" type="building" color="255,230,230" fill="1" layer="-1.00" shape="2972.804975,2999.892552 2981.077828,2999.568626 2980.714025,2990.533986 2972.441170,2990.857911 2972.804975,2999.892552"/>
    <poly id="354497077" type="building" color="255,230,230" fill="1" layer="-1.00" shape="3147.018057,3066.082981 3158.120521,3065.562451 3157.796466,3058.872341 3146.704843,3059.392837 3147.018057,3066.082981"/>
    <poly id="354497079" type="building" color="255,230,230" fill="1" layer="-1.00" shape="2923.832362,2992.201147 2932.842490,2991.841770 2932.219625,2976.116820 2923.198648,2976.476229 2923.832362,2992.201147"/>
    <poly id="354497112" type="building" color="255,230,230" fill="1" layer="-1.00" shape="2901.215539,3000.399267 2907.048823,3000.171268 2906.767676,2993.348309 2900.945234,2993.576275 2901.215539,3000.399267"/>
    <poly id="354497116" type="building" color="255,230,230" fill="1" layer="-1.00" shape="3153.228126,3104.020804 3167.810959,3103.345873 3167.358981,3093.824878 3152.776143,3094.499808 3153.228126,3104.020804"/>
    <poly id="354497119" type="building" color="255,230,230" fill="1" layer="-1.00" shape="2982.158716,2998.426172 2994.931210,2997.922588 2994.649340,2990.856319 2981.876843,2991.359903 2982.158716,2998.426172"/>
    <poly id="354497126" type="building" color="255,230,230" fill="1" layer="-1.00" shape="2854.437317,3036.464404 2867.164963,3035.485331 2865.911835,3019.342043 2853.173338,3020.321150 2854.437317,3036.464404"/>
    <poly id="354497151" type="building" color="255,230,230" fill="1" layer="-1.00" shape="2800.289071,2995.919719 2809.451011,2995.559836 2808.734475,2977.601117 2799.572529,2977.960999 2800.289071,2995.919719"/>
    <poly id="354497158" type="building" color="255,230,230" fill="1" layer="-1.00" shape="2803.207915,3017.742573 2812.629826,3017.293416 2811.691263,2997.654306 2802.269345,2998.103463 2803.207915,3017.742573"/>
    <poly id="354497162" type="building" color="255,230,230" fill="1" layer="-1.00" shape="2803.643628,3089.109340 2814.743134,3087.626489 2811.636637,3064.720360 2800.537155,3066.214272 2803.643628,3089.109340"/>
    <poly id="354497170" type="building" color="255,230,230" fill="1" layer="-1.00" shape="2867.872990,3025.905482 2882.259358,3024.799677 2882.562915,3024.776628 2881.706332,3017.723179 2867.330804,3018.828950 2867.872990,3025.905482"/>
    <poly id="354497200" type="building" color="255,230,230" fill="1" layer="-1.00" shape="2836.260135,3014.279103 2848.631473,3013.798799 2847.715875,2991.029731 2835.355405,2991.521061 2836.260135,3014.279103"/>
    <poly id="354497211" type="building" color="255,230,230" fill="1" layer="-1.00" shape="2811.004574,2992.967108 2820.133984,2992.607329 2819.441618,2975.455892 2810.312202,2975.815671 2811.004574,2992.967108"/>
    <poly id="354497221" type="building" color="255,230,230" fill="1" layer="-1.00" shape="2828.886983,3067.554051 2835.141463,3066.771761 2833.596795,3054.577671 2827.342312,3055.359961 2828.886983,3067.554051"/>
    <poly id="354497225" type="building" color="255,230,230" fill="1" layer="-1.00" shape="2815.320556,3084.970396 2822.615620,3084.052196 2820.704154,3068.939476 2813.409052,3069.846617 2815.320556,3084.970396"/>
    <poly id="354497243" type="building" color="255,230,230" fill="1" layer="-1.00" shape="2830.207551,3049.091400 2838.284288,3048.469421 2837.765070,3041.813086 2829.688331,3042.435066 2830.207551,3049.091400"/>
    <poly id="354497247" type="building" color="255,230,230" fill="1" layer="-1.00" shape="2845.112763,2983.760441 2857.993669,2983.245402 2857.735011,2976.687807 2844.854068,2977.191786 2845.112763,2983.760441"/>
    <poly id="354497256" type="building" color="255,230,230" fill="1" layer="-1.00" shape="2877.695457,2982.764771 2892.679846,2982.176946 2892.327264,2973.274987 2877.332027,2973.862845 2877.695457,2982.764771"/>
    <poly id="354497270" type="building" color="255,230,230" fill="1" layer="-1.00" shape="2849.220011,3057.228347 2862.587697,3056.335787 2862.133785,3049.756670 2848.766095,3050.649230 2849.220011,3057.228347"/>
    <poly id="354497274" type="building" color="255,230,230" fill="1" layer="-1.00" shape="2837.813859,3064.806006 2846.509597,3064.480743 2845.990850,3050.901049 2837.295141,3051.237372 2837.813859,3064.806006"/>
    <poly id="354497307" type="building" color="255,230,230" fill="1" layer="-1.00" shape="2859.575534,2982.809228 2873.009437,2982.281441 2872.692294,2974.330506 2859.247543,2974.858325 2859.575534,2982.809228"/>
    <poly id="354497313" type="building" color="255,230,230" fill="1" layer="-1.00" shape="3141.082007,3025.556359 3151.859243,3025.058941 3151.581399,3019.297702 3140.815038,3019.806146 3141.082007,3025.556359"/>
    <poly id="354497319" type="building" color="255,230,230" fill="1" layer="-1.00" shape="3148.819917,3041.812562 3159.130935,3041.338689 3158.806272,3034.449507 3148.495286,3034.934439 3148.819917,3041.812562"/>
    <poly id="354497375" type="building" color="255,230,230" fill="1" layer="-1.00" shape="2937.730989,3001.791571 2953.311704,3001.179834 2952.947757,2992.100955 2937.367037,2992.712692 2937.730989,3001.791571"/>
    <poly id="354497385" type="building" color="255,230,230" fill="1" layer="-1.00" shape="3139.602268,3009.723431 3148.384502,3009.309523 3148.013490,3001.447231 3139.220410,3001.861172 3139.602268,3009.723431"/>
    <poly id="354497406" type="building" color="255,230,230" fill="1" layer="-1.00" shape="3151.728498,2999.998129 3159.545778,2999.631410 3159.081806,2989.734422 3151.253679,2990.101175 3151.728498,2999.998129"/>
    <poly id="354497448" type="building" color="255,230,230" fill="1" layer="-1.00" shape="2954.666189,3000.854957 2962.765542,3000.531557 2962.436735,2992.304166 2954.337346,2992.616507 2954.666189,3000.854957"/>
    <poly id="354497450" type="building" color="255,230,230" fill="1" layer="-1.00" shape="2829.521811,3041.174773 2837.186590,3040.587235 2835.674107,3021.204257 2828.009322,3021.791795 2829.521811,3041.174773"/>
    <poly id="354497507" type="building" color="255,230,230" fill="1" layer="-1.00" shape="2983.425409,3011.937217 2995.330467,3011.458407 2995.142452,3006.714382 2983.237359,3007.182133 2983.425409,3011.937217"/>
    <poly id="354497520" type="building" color="255,230,230" fill="1" layer="-1.00" shape="2963.660583,3002.442141 2970.469701,3002.177991 2970.222726,2995.885792 2963.413606,2996.149943 2963.660583,3002.442141"/>
    <poly id="354497579" type="building" color="255,230,230" fill="1" layer="-1.00" shape="2814.152281,3015.165290 2822.522724,3014.841017 2821.771123,2996.052930 2813.400708,2996.388262 2814.152281,3015.165290"/>
    <poly id="354497593" type="building" color="255,230,230" fill="1" layer="-1.00" shape="2984.261388,3005.177199 2992.588458,3004.853111 2992.400240,3000.042729 2984.073168,3000.366817 2984.261388,3005.177199"/>
    <poly id="354497603" type="building" color="255,230,230" fill="1" layer="-1.00" shape="2869.216967,3039.847616 2886.447397,3039.717411 2886.371532,3029.111414 2869.130252,3029.241652 2869.216967,3039.847616"/>
    <poly id="354497651" type="building" color="255,230,230" fill="1" layer="-1.00" shape="2821.008123,2991.233249 2830.863962,2990.838068 2830.264928,2975.831922 2820.409050,2976.216044 2821.008123,2991.233249"/>
    <poly id="354497663" type="building" color="255,230,230" fill="1" layer="-1.00" shape="2824.655243,3013.628975 2833.296746,3013.292815 2832.486018,2992.901256 2823.844542,2993.248475 2824.655243,3013.628975"/>
    <poly id="354497670" type="building" color="255,230,230" fill="1" layer="-1.00" shape="2823.880638,3082.842813 2829.452232,3082.151092 2827.463067,3066.452448 2821.891503,3067.155228 2823.880638,3082.842813"/>
    <poly id="354497676" type="building" color="255,230,230" fill="1" layer="-1.00" shape="2875.310286,3050.169745 2886.326550,3049.826325 2886.085181,3041.830918 2875.058037,3042.163312 2875.310286,3050.169745"/>
    <poly id="354497697" type="building" color="255,230,230" fill="1" layer="-1.00" shape="2864.307234,3008.818148 2876.830353,3008.326332 2876.407215,2997.632922 2863.873247,2998.124770 2864.307234,3008.818148"/>
    <poly id="354497707" type="building" color="255,230,230" fill="1" layer="-1.00" shape="2831.404826,2990.405083 2838.918689,2990.105560 2838.377845,2976.393218 2830.853135,2976.692774 2831.404826,2990.405083"/>
    <poly id="354497719" type="building" color="255,230,230" fill="1" layer="-1.00" shape="2830.960354,3082.422961 2837.344922,3081.629213 2835.666775,3068.340625 2829.282204,3069.134373 2830.960354,3082.422961"/>
    <poly id="354497739" type="building" color="255,230,230" fill="1" layer="-1.00" shape="2811.433636,3055.099063 2820.105623,3054.099224 2819.560040,3049.455831 2825.738822,3048.740130 2822.654454,3022.438612 2807.803704,3024.165214 2811.433636,3055.099063"/>
    <poly id="354501498" type="building" color="255,230,230" fill="1" layer="-1.00" shape="1907.001581,3638.466048 1933.425691,3637.897513 1933.109942,3623.487698 1922.082710,3623.720950 1922.132837,3625.899557 1906.735946,3626.234838 1907.001581,3638.466048"/>
    <poly id="354501511" type="building" color="255,230,230" fill="1" layer="-1.00" shape="1903.943154,3701.250415 1936.510109,3698.937522 1935.377088,3683.236253 1902.820958,3685.549113 1903.943154,3701.250415"/>
    <poly id="354501519" type="building" color="255,230,230" fill="1" layer="-1.00" shape="1679.316889,3808.939420 1689.364015,3807.381947 1689.054348,3805.436400 1692.490069,3804.894854 1688.773274,3781.293924 1675.290415,3783.392944 1679.316889,3808.939420"/>
    <poly id="354501529" type="building" color="255,230,230" fill="1" layer="-1.00" shape="1666.084783,3811.468995 1671.102924,3810.690272 1670.992426,3810.027033 1671.924515,3809.880359 1672.035013,3810.543598 1675.058889,3810.069689 1674.295768,3805.272146 1675.206171,3805.125540 1674.288182,3799.344165 1673.388588,3799.479678 1672.503611,3793.853036 1673.186438,3793.751376 1672.644519,3790.346669 1671.961691,3790.448330 1671.663038,3788.558048 1672.335022,3788.456421 1671.936612,3785.869687 1671.253784,3785.971347 1671.131996,3785.164367 1662.136161,3786.552682 1662.744621,3790.432749 1663.373232,3790.331257 1663.937321,3793.890730 1663.081101,3794.026109 1664.629652,3803.820199 1665.615924,3803.662296 1665.969998,3805.939496 1665.232988,3806.052385 1666.084783,3811.468995"/>
    <poly id="354501585" type="building" color="255,230,230" fill="1" layer="-1.00" shape="2035.133111,3891.778689 2041.092323,3900.762838 2062.378360,3886.828079 2056.429996,3877.843893 2035.133111,3891.778689"/>