<?xml version="1.0" encoding="UTF-8"?>

<!-- generated on 2026-02-18T22:29:17.582837+05:30 by Eclipse SUMO netconvert 1.26.0
<netconvertConfiguration xmlns:xsi="http://www.w3.org/2001/XMLSchema-instance" xsi:noNamespaceSchemaLocation="http://sumo.dlr.de/xsd/netconvertConfiguration.xsd">

    <input>
        <type-files value="osmNetconvert.typ.xml"/>
        <osm-files value="map.osm"/>
    </input>

    <output>
        <output-file value="map.net.xml"/>
    </output>

    <projection>
        <proj.utm value="true"/>
    </projection>

    <report>
        <xml-validation value="never"/>
    </report>

</netconvertConfiguration>
-->

<net version="1.20" junctionCornerDetail="5" limitTurnSpeed="5.50" xmlns:xsi="http://www.w3.org/2001/XMLSchema-instance" xsi:noNamespaceSchemaLocation="http://sumo.dlr.de/xsd/net_file.xsd">

    <location netOffset="-412711.09,-1437593.54" convBoundary="0.00,0.00,3640.57,8507.62" origBoundary="80.194854,13.002911,80.228524,13.079828" projParameter="+proj=utm +zone=44 +ellps=WGS84 +datum=WGS84 +units=m +no_defs"/>

    <type id="highway.busway" priority="1" numLanes="1" speed="27.78" allow="bus" oneway="1"/>
    <type id="highway.footway" priority="1" numLanes="1" speed="2.78" allow="pedestrian" oneway="1" width="2.00"/>
    <type id="highway.living_street" priority="2" numLanes="1" speed="2.78" disallow="tram rail_urban rail rail_electric rail_fast ship container cable_car subway aircraft wheelchair scooter drone" oneway="0"/>
    <type id="highway.primary" priority="12" numLanes="2" speed="27.78" disallow="tram rail_urban rail rail_electric rail_fast ship container cable_car subway aircraft wheelchair scooter drone" oneway="0"/>
    <type id="highway.residential" priority="3" numLanes="1" speed="13.89" disallow="tram rail_urban rail rail_electric rail_fast ship container cable_car subway aircraft wheelchair scooter drone" oneway="0"/>
    <type id="highway.secondary" priority="11" numLanes="1" speed="27.78" disallow="tram rail_urban rail rail_electric rail_fast ship container cable_car subway aircraft wheelchair scooter drone" oneway="0"/>
    <type id="highway.secondary_link" priority="6" numLanes="1" speed="22.22" disallow="tram rail_urban rail rail_electric rail_fast ship container cable_car subway aircraft wheelchair scooter drone" oneway="0"/>
    <type id="highway.service" priority="1" numLanes="1" speed="5.56" allow="pedestrian delivery bicycle" oneway="0"/>
    <type id="highway.tertiary" priority="10" numLanes="1" speed="22.22" disallow="tram rail_urban rail rail_electric rail_fast ship container cable_car subway aircraft wheelchair scooter drone" oneway="0"/>
    <type id="railway.subway" priority="18" numLanes="1" speed="27.78" allow="subway" oneway="1"/>

    <edge id=":10010399219_0" function="internal">
        <lane id=":10010399219_0_0" index="0" disallow="tram rail_urban rail rail_electric rail_fast ship container cable_car subway aircraft wheelchair scooter drone" speed="5.91" length="6.02" shape="1822.35,3220.64 1821.78,3219.95 1820.65,3219.55 1818.97,3219.43 1816.73,3219.60"/>
        <lane id=":10010399219_0_1" index="1" disallow="tram rail_urban rail rail_electric rail_fast ship container cable_car subway aircraft wheelchair scooter drone" speed="6.71" length="8.00" shape="1822.35,3220.64 1821.33,3218.59 1819.99,3217.21 1818.33,3216.49 1816.35,3216.42"/>
    </edge>
    <edge id=":10010399219_2" function="internal">
        <lane id=":10010399219_2_0" index="0" disallow="tram rail_urban rail rail_electric rail_fast ship container cable_car subway aircraft wheelchair scooter drone" speed="27.78" length="9.70" shape="1822.35,3220.64 1821.39,3217.85 1820.86,3215.91 1820.45,3213.93 1819.86,3211.04"/>
        <lane id=":10010399219_2_1" index="1" disallow="tram rail_urban rail rail_electric rail_fast ship container cable_car subway aircraft wheelchair scooter drone" speed="27.78" length="9.70" shape="1825.36,3219.54 1824.45,3216.88 1823.94,3215.03 1823.55,3213.14 1822.99,3210.38"/>
    </edge>
    <edge id=":10010399219_4" function="internal">
        <lane id=":10010399219_4_0" index="0" disallow="tram rail_urban rail rail_electric rail_fast ship container cable_car subway aircraft wheelchair scooter drone" speed="4.67" length="4.83" shape="1825.36,3219.54 1825.19,3218.42 1825.59,3217.54 1826.56,3216.93 1828.11,3216.57"/>
    </edge>
    <edge id=":10277606438_0" function="internal">
        <lane id=":10277606438_0_0" index="0" disallow="tram rail_urban rail rail_electric rail_fast ship container cable_car subway aircraft wheelchair scooter drone" speed="6.62" length="8.97" shape="1809.28,3226.20 1808.51,3223.81 1807.20,3222.19 1805.37,3221.35 1803.01,3221.28"/>
        <lane id=":10277606438_0_1" index="1" disallow="tram rail_urban rail rail_electric rail_fast ship container cable_car subway aircraft wheelchair scooter drone" speed="8.09" length="13.92" shape="1812.42,3225.63 1811.23,3221.96 1809.20,3219.48 1806.33,3218.19 1802.62,3218.11"/>
    </edge>
    <edge id=":10277606438_2" function="internal">
        <lane id=":10277606438_2_0" index="0" disallow="tram rail_urban rail rail_electric rail_fast ship container cable_car subway aircraft wheelchair scooter drone" speed="27.78" length="13.63" shape="1816.54,3219.62 1803.01,3221.28"/>
        <lane id=":10277606438_2_1" index="1" disallow="tram rail_urban rail rail_electric rail_fast ship container cable_car subway aircraft wheelchair scooter drone" speed="27.78" length="13.63" shape="1816.15,3216.44 1802.62,3218.11"/>
    </edge>
    <edge id=":10277606441_0" function="internal">
        <lane id=":10277606441_0_0" index="0" disallow="tram rail_urban rail rail_electric rail_fast ship container cable_car subway aircraft wheelchair scooter drone" speed="17.19" length="9.37" shape="1833.77,3340.20 1833.12,3337.56 1832.21,3335.90 1830.96,3334.38 1829.25,3332.17"/>
        <lane id=":10277606441_0_1" index="1" disallow="tram rail_urban rail rail_electric rail_fast ship container cable_car subway aircraft wheelchair scooter drone" speed="18.41" length="10.77" shape="1836.93,3339.68 1836.20,3336.63 1835.21,3334.69 1833.82,3332.91 1831.89,3330.35"/>
    </edge>
    <edge id=":10277606441_2" function="internal">
        <lane id=":10277606441_2_0" index="0" disallow="tram rail_urban rail rail_electric rail_fast ship container cable_car subway aircraft wheelchair scooter drone" speed="15.22" length="9.70" shape="1836.93,3339.68 1836.22,3336.73 1835.57,3334.66 1835.39,3332.63 1836.07,3329.80"/>
        <lane id=":10277606441_2_1" index="1" disallow="tram rail_urban rail rail_electric rail_fast ship container cable_car subway aircraft wheelchair scooter drone" speed="14.55" length="9.70" shape="1836.93,3339.68 1836.74,3337.02 1837.16,3335.20 1838.00,3333.43 1839.08,3330.88"/>
    </edge>
    <edge id=":10598398070_0" function="internal">
        <lane id=":10598398070_0_0" index="0" disallow="tram rail_urban rail rail_electric rail_fast ship container cable_car subway aircraft wheelchair scooter drone" speed="13.89" length="0.23" shape="1828.53,3427.77 1828.30,3427.80"/>
    </edge>
    <edge id=":10598398070_1" function="internal">
        <lane id=":10598398070_1_0" index="0" disallow="tram rail_urban rail rail_electric rail_fast ship container cable_car subway aircraft wheelchair scooter drone" speed="13.89" length="0.31" shape="1827.83,3424.64 1828.14,3424.60"/>
    </edge>
    <edge id=":10680197953_0" function="internal">
        <lane id=":10680197953_0_0" index="0" disallow="tram rail_urban rail rail_electric rail_fast ship container cable_car subway aircraft wheelchair scooter drone" speed="3.65" length="4.67" shape="2679.69,3549.27 2679.03,3550.55 2678.28,3551.04 2677.44,3550.73 2676.51,3549.63"/>
    </edge>
    <edge id=":10680197954_0" function="internal">
        <lane id=":10680197954_0_0" index="0" disallow="tram rail_urban rail rail_electric rail_fast ship container cable_car subway aircraft wheelchair scooter drone" speed="6.74" length="9.26" shape="2669.90,3490.33 2669.27,3487.83 2668.04,3486.08 2666.21,3485.08 2663.77,3484.83"/>
    </edge>
    <edge id=":10680197954_1" function="internal">
        <lane id=":10680197954_1_0" index="0" disallow="tram rail_urban rail rail_electric rail_fast ship container cable_car subway aircraft wheelchair scooter drone" speed="7.96" length="14.29" shape="2669.90,3490.33 2670.02,3486.41 2671.38,3483.49 2673.97,3481.59 2677.79,3480.69"/>
    </edge>
    <edge id=":10680197954_2" function="internal">
        <lane id=":10680197954_2_0" index="0" disallow="tram rail_urban rail rail_electric rail_fast ship container cable_car subway aircraft wheelchair scooter drone" speed="3.65" length="4.67" shape="2669.90,3490.33 2670.56,3489.05 2671.31,3488.56 2672.15,3488.87 2673.08,3489.98"/>
    </edge>
    <edge id=":10680197954_3" function="internal">
        <lane id=":10680197954_3_0" index="0" disallow="tram rail_urban rail rail_electric rail_fast ship container cable_car subway aircraft wheelchair scooter drone" speed="6.46" length="9.03" shape="2678.07,3483.88 2675.65,3484.45 2674.01,3485.65 2673.16,3487.49 2673.08,3489.98"/>
    </edge>
    <edge id=":10680197954_4" function="internal">
        <lane id=":10680197954_4_0" index="0" disallow="tram rail_urban rail rail_electric rail_fast ship container cable_car subway aircraft wheelchair scooter drone" speed="13.89" length="14.34" shape="2678.07,3483.88 2663.77,3484.83"/>
    </edge>
    <edge id=":10680197954_5" function="internal">
        <lane id=":10680197954_5_0" index="0" disallow="tram rail_urban rail rail_electric rail_fast ship container cable_car subway aircraft wheelchair scooter drone" speed="3.65" length="1.44" shape="2678.07,3483.88 2676.81,3483.19"/>
    </edge>
    <edge id=":10680197954_9" function="internal">
        <lane id=":10680197954_9_0" index="0" disallow="tram rail_urban rail rail_electric rail_fast ship container cable_car subway aircraft wheelchair scooter drone" speed="3.65" length="3.23" shape="2676.81,3483.19 2676.34,3482.43 2676.67,3481.59 2677.79,3480.69"/>
    </edge>
    <edge id=":10680197954_6" function="internal">
        <lane id=":10680197954_6_0" index="0" disallow="tram rail_urban rail rail_electric rail_fast ship container cable_car subway aircraft wheelchair scooter drone" speed="13.89" length="14.20" shape="2663.62,3481.63 2677.79,3480.69"/>
    </edge>
    <edge id=":10680197954_7" function="internal">
        <lane id=":10680197954_7_0" index="0" disallow="tram rail_urban rail rail_electric rail_fast ship container cable_car subway aircraft wheelchair scooter drone" speed="8.19" length="3.79" shape="2663.62,3481.63 2667.39,3482.01"/>
    </edge>
    <edge id=":10680197954_8" function="internal">
        <lane id=":10680197954_8_0" index="0" disallow="tram rail_urban rail rail_electric rail_fast ship container cable_car subway aircraft wheelchair scooter drone" speed="3.65" length="1.44" shape="2663.62,3481.63 2664.86,3482.38"/>
    </edge>
    <edge id=":10680197954_10" function="internal">
        <lane id=":10680197954_10_0" index="0" disallow="tram rail_urban rail rail_electric rail_fast ship container cable_car subway aircraft wheelchair scooter drone" speed="8.19" length="10.39" shape="2667.39,3482.01 2670.23,3483.53 2672.12,3486.18 2673.08,3489.98"/>
    </edge>
    <edge id=":10680197954_11" function="internal">
        <lane id=":10680197954_11_0" index="0" disallow="tram rail_urban rail rail_electric rail_fast ship container cable_car subway aircraft wheelchair scooter drone" speed="3.65" length="3.23" shape="2664.86,3482.38 2665.29,3483.16 2664.93,3483.98 2663.77,3484.83"/>
    </edge>
    <edge id=":11033991938_0" function="internal">
        <lane id=":11033991938_0_0" index="0" disallow="tram rail_urban rail rail_electric rail_fast ship container cable_car subway aircraft wheelchair scooter drone" speed="27.78" length="12.86" shape="1708.06,3548.42 1720.85,3546.53"/>
        <lane id=":11033991938_0_1" index="1" disallow="tram rail_urban rail rail_electric rail_fast ship container cable_car subway aircraft wheelchair scooter drone" speed="27.78" length="12.86" shape="1708.64,3551.57 1721.30,3549.69"/>
    </edge>
    <edge id=":11033991938_2" function="internal">
        <lane id=":11033991938_2_0" index="0" allow="bus bicycle" speed="18.17" length="15.16" shape="1708.64,3551.57 1713.35,3551.19 1716.93,3551.82 1720.02,3553.00 1723.27,3554.32"/>
    </edge>
    <edge id=":11033991944_0" function="internal">
        <lane id=":11033991944_0_0" index="0" disallow="tram rail_urban rail rail_electric rail_fast ship container cable_car subway aircraft wheelchair scooter drone" speed="27.78" length="13.00" shape="1774.18,3538.88 1777.96,3538.42 1780.56,3538.16 1783.13,3537.77 1786.84,3536.93"/>
        <lane id=":11033991944_0_1" index="1" disallow="tram rail_urban rail rail_electric rail_fast ship container cable_car subway aircraft wheelchair scooter drone" speed="27.78" length="13.00" shape="1774.63,3542.05 1778.51,3541.57 1781.18,3541.30 1783.83,3540.90 1787.63,3540.03"/>
    </edge>
    <edge id=":11033991944_2" function="internal">
        <lane id=":11033991944_2_0" index="0" allow="bus bicycle" speed="18.10" length="12.96" shape="1776.91,3546.93 1779.29,3544.66 1781.35,3542.82 1783.87,3541.30 1787.63,3540.03"/>
    </edge>
    <edge id=":11037033948_0" function="internal">
        <lane id=":11037033948_0_0" index="0" disallow="tram rail_urban rail rail_electric rail_fast ship container cable_car subway aircraft wheelchair scooter drone" speed="3.65" length="4.67" shape="2645.63,3340.05 2644.38,3339.31 2643.94,3338.54 2644.30,3337.72 2645.45,3336.85"/>
    </edge>
    <edge id=":11037033949_0" function="internal">
        <lane id=":11037033949_0_0" index="0" disallow="tram rail_urban rail rail_electric rail_fast ship container cable_car subway aircraft wheelchair scooter drone" speed="13.89" length="14.68" shape="2700.17,3328.49 2699.77,3332.15 2699.78,3335.78 2699.93,3339.43 2699.96,3343.14"/>
    </edge>
    <edge id=":11037033949_1" function="internal">
        <lane id=":11037033949_1_0" index="0" disallow="tram rail_urban rail rail_electric rail_fast ship container cable_car subway aircraft wheelchair scooter drone" speed="8.72" length="4.02" shape="2700.17,3328.49 2698.99,3332.33"/>
    </edge>
    <edge id=":11037033949_2" function="internal">
        <lane id=":11037033949_2_0" index="0" disallow="tram rail_urban rail rail_electric rail_fast ship container cable_car subway aircraft wheelchair scooter drone" speed="3.68" length="1.47" shape="2700.17,3328.49 2699.37,3329.73"/>
    </edge>
    <edge id=":11037033949_9" function="internal">
        <lane id=":11037033949_9_0" index="0" disallow="tram rail_urban rail rail_electric rail_fast ship container cable_car subway aircraft wheelchair scooter drone" speed="8.72" length="9.89" shape="2698.99,3332.33 2697.10,3335.13 2694.51,3336.89 2691.21,3337.60"/>
    </edge>
    <edge id=":11037033949_10" function="internal">
        <lane id=":11037033949_10_0" index="0" disallow="tram rail_urban rail rail_electric rail_fast ship container cable_car subway aircraft wheelchair scooter drone" speed="3.68" length="3.30" shape="2699.37,3329.73 2698.56,3330.15 2697.74,3329.76 2696.90,3328.55"/>
    </edge>
    <edge id=":11037033949_3" function="internal">
        <lane id=":11037033949_3_0" index="0" disallow="tram rail_urban rail rail_electric rail_fast ship container cable_car subway aircraft wheelchair scooter drone" speed="7.14" length="9.04" shape="2691.02,3334.41 2693.19,3333.95 2694.90,3332.81 2696.14,3331.01 2696.90,3328.55"/>
    </edge>
    <edge id=":11037033949_4" function="internal">
        <lane id=":11037033949_4_0" index="0" disallow="tram rail_urban rail rail_electric rail_fast ship container cable_car subway aircraft wheelchair scooter drone" speed="7.86" length="14.55" shape="2691.02,3334.41 2695.04,3334.77 2697.88,3336.34 2699.52,3339.13 2699.96,3343.14"/>
    </edge>
    <edge id=":11037033949_5" function="internal">
        <lane id=":11037033949_5_0" index="0" disallow="tram rail_urban rail rail_electric rail_fast ship container cable_car subway aircraft wheelchair scooter drone" speed="3.65" length="4.67" shape="2691.02,3334.41 2692.26,3335.14 2692.71,3335.91 2692.36,3336.73 2691.21,3337.60"/>
    </edge>
    <edge id=":11037033949_6" function="internal">
        <lane id=":11037033949_6_0" index="0" disallow="tram rail_urban rail rail_electric rail_fast ship container cable_car subway aircraft wheelchair scooter drone" speed="6.33" length="9.05" shape="2696.77,3343.04 2696.49,3340.54 2695.47,3338.81 2693.71,3337.83 2691.21,3337.60"/>
    </edge>
    <edge id=":11037033949_7" function="internal">
        <lane id=":11037033949_7_0" index="0" disallow="tram rail_urban rail rail_electric rail_fast ship container cable_car subway aircraft wheelchair scooter drone" speed="13.89" length="14.52" shape="2696.77,3343.04 2696.73,3339.36 2696.55,3335.76 2696.51,3332.18 2696.90,3328.55"/>
    </edge>
    <edge id=":11037033949_8" function="internal">
        <lane id=":11037033949_8_0" index="0" disallow="tram rail_urban rail rail_electric rail_fast ship container cable_car subway aircraft wheelchair scooter drone" speed="3.65" length="1.44" shape="2696.77,3343.04 2697.60,3341.86"/>
    </edge>
    <edge id=":11037033949_11" function="internal">
        <lane id=":11037033949_11_0" index="0" disallow="tram rail_urban rail rail_electric rail_fast ship container cable_car subway aircraft wheelchair scooter drone" speed="3.65" length="3.23" shape="2697.60,3341.86 2698.42,3341.49 2699.20,3341.92 2699.96,3343.14"/>
    </edge>
    <edge id=":11041942143_0" function="internal">
        <lane id=":11041942143_0_0" index="0" disallow="tram rail_urban rail rail_electric rail_fast ship container cable_car subway aircraft wheelchair scooter drone" speed="3.65" length="4.67" shape="1817.75,3832.48 1819.03,3831.81 1819.93,3831.84 1820.44,3832.58 1820.57,3834.02"/>
    </edge>
    <edge id=":11041942144_0" function="internal">
        <lane id=":11041942144_0_0" index="0" disallow="tram rail_urban rail rail_electric rail_fast ship container cable_car subway aircraft wheelchair scooter drone" speed="6.56" length="9.13" shape="1708.77,3854.22 1708.02,3851.87 1706.67,3850.31 1704.74,3849.55 1702.22,3849.59"/>
    </edge>
    <edge id=":11041942144_1" function="internal">
        <lane id=":11041942144_1_0" index="0" disallow="tram rail_urban rail rail_electric rail_fast ship container cable_car subway aircraft wheelchair scooter drone" speed="13.89" length="14.42" shape="1708.77,3854.22 1706.29,3840.01"/>
    </edge>
    <edge id=":11041942144_2" function="internal">
        <lane id=":11041942144_2_0" index="0" disallow="tram rail_urban rail rail_electric rail_fast ship container cable_car subway aircraft wheelchair scooter drone" speed="3.65" length="1.44" shape="1708.77,3854.22 1709.36,3852.91"/>
    </edge>
    <edge id=":11041942144_9" function="internal">
        <lane id=":11041942144_9_0" index="0" disallow="tram rail_urban rail rail_electric rail_fast ship container cable_car subway aircraft wheelchair scooter drone" speed="3.65" length="3.23" shape="1709.36,3852.91 1710.08,3852.38 1710.94,3852.64 1711.93,3853.70"/>
    </edge>
    <edge id=":11041942144_3" function="internal">
        <lane id=":11041942144_3_0" index="0" disallow="tram rail_urban rail rail_electric rail_fast ship container cable_car subway aircraft wheelchair scooter drone" speed="13.89" length="14.47" shape="1709.44,3839.44 1711.93,3853.70"/>
    </edge>
    <edge id=":11041942144_4" function="internal">
        <lane id=":11041942144_4_0" index="0" disallow="tram rail_urban rail rail_electric rail_fast ship container cable_car subway aircraft wheelchair scooter drone" speed="7.96" length="4.14" shape="1709.44,3839.44 1709.59,3843.37 1709.51,3843.56"/>
    </edge>
    <edge id=":11041942144_5" function="internal">
        <lane id=":11041942144_5_0" index="0" disallow="tram rail_urban rail rail_electric rail_fast ship container cable_car subway aircraft wheelchair scooter drone" speed="3.65" length="1.44" shape="1709.44,3839.44 1708.87,3840.76"/>
    </edge>
    <edge id=":11041942144_10" function="internal">
        <lane id=":11041942144_10_0" index="0" disallow="tram rail_urban rail rail_electric rail_fast ship container cable_car subway aircraft wheelchair scooter drone" speed="7.96" length="10.15" shape="1709.51,3843.56 1708.43,3846.37 1705.98,3848.44 1702.22,3849.59"/>
    </edge>
    <edge id=":11041942144_11" function="internal">
        <lane id=":11041942144_11_0" index="0" disallow="tram rail_urban rail rail_electric rail_fast ship container cable_car subway aircraft wheelchair scooter drone" speed="3.65" length="3.23" shape="1708.87,3840.76 1708.15,3841.30 1707.29,3841.05 1706.29,3840.01"/>
    </edge>
    <edge id=":11041942144_6" function="internal">
        <lane id=":11041942144_6_0" index="0" disallow="tram rail_urban rail rail_electric rail_fast ship container cable_car subway aircraft wheelchair scooter drone" speed="6.45" length="9.03" shape="1701.73,3846.43 1704.10,3845.70 1705.66,3844.39 1706.39,3842.49 1706.29,3840.01"/>
    </edge>
    <edge id=":11041942144_7" function="internal">
        <lane id=":11041942144_7_0" index="0" disallow="tram rail_urban rail rail_electric rail_fast ship container cable_car subway aircraft wheelchair scooter drone" speed="8.05" length="14.25" shape="1701.73,3846.43 1705.65,3846.37 1708.66,3847.56 1710.75,3850.01 1711.93,3853.70"/>
    </edge>
    <edge id=":11041942144_8" function="internal">
        <lane id=":11041942144_8_0" index="0" disallow="tram rail_urban rail rail_electric rail_fast ship container cable_car subway aircraft wheelchair scooter drone" speed="3.65" length="4.67" shape="1701.73,3846.43 1703.04,3847.03 1703.56,3847.76 1703.28,3848.62 1702.22,3849.59"/>
    </edge>
    <edge id=":11060936289_0" function="internal">
        <lane id=":11060936289_0_0" index="0" disallow="tram rail_urban rail rail_electric rail_fast ship container cable_car subway aircraft wheelchair scooter drone" speed="13.89" length="8.10" shape="2990.95,3096.15 2982.86,3096.64"/>
    </edge>
    <edge id=":11060936289_1" function="internal">
        <lane id=":11060936289_1_0" index="0" disallow="tram rail_urban rail rail_electric rail_fast ship container cable_car subway aircraft wheelchair scooter drone" speed="8.20" length="3.97" shape="2990.95,3096.15 2987.16,3095.82 2987.01,3095.75"/>
    </edge>
    <edge id=":11060936289_2" function="internal">
        <lane id=":11060936289_2_0" index="0" disallow="tram rail_urban rail rail_electric rail_fast ship container cable_car subway aircraft wheelchair scooter drone" speed="3.65" length="1.44" shape="2990.95,3096.15 2989.70,3095.42"/>
    </edge>
    <edge id=":11060936289_9" function="internal">
        <lane id=":11060936289_9_0" index="0" disallow="tram rail_urban rail rail_electric rail_fast ship container cable_car subway aircraft wheelchair scooter drone" speed="8.20" length="10.31" shape="2987.01,3095.75 2984.30,3094.33 2982.37,3091.66 2981.38,3087.83"/>
    </edge>
    <edge id=":11060936289_10" function="internal">
        <lane id=":11060936289_10_0" index="0" disallow="tram rail_urban rail rail_electric rail_fast ship container cable_car subway aircraft wheelchair scooter drone" speed="3.65" length="3.23" shape="2989.70,3095.42 2989.25,3094.65 2989.61,3093.83 2990.75,3092.96"/>
    </edge>
    <edge id=":11060936289_3" function="internal">
        <lane id=":11060936289_3_0" index="0" disallow="tram rail_urban rail rail_electric rail_fast ship container cable_car subway aircraft wheelchair scooter drone" speed="6.74" length="9.34" shape="2984.55,3087.44 2985.20,3089.98 2986.45,3091.75 2988.30,3092.74 2990.75,3092.96"/>
    </edge>
    <edge id=":11060936289_4" function="internal">
        <lane id=":11060936289_4_0" index="0" disallow="tram rail_urban rail rail_electric rail_fast ship container cable_car subway aircraft wheelchair scooter drone" speed="6.68" length="10.01" shape="2984.55,3087.44 2984.85,3091.41 2984.67,3094.26 2984.01,3096.00 2982.86,3096.64"/>
    </edge>
    <edge id=":11060936289_5" function="internal">
        <lane id=":11060936289_5_0" index="0" disallow="tram rail_urban rail rail_electric rail_fast ship container cable_car subway aircraft wheelchair scooter drone" speed="3.65" length="4.67" shape="2984.55,3087.44 2983.90,3088.73 2983.16,3089.22 2982.32,3088.92 2981.38,3087.83"/>
    </edge>
    <edge id=":11060936289_6" function="internal">
        <lane id=":11060936289_6_0" index="0" disallow="tram rail_urban rail rail_electric rail_fast ship container cable_car subway aircraft wheelchair scooter drone" speed="5.25" length="5.77" shape="2982.67,3093.45 2981.38,3087.83"/>
    </edge>
    <edge id=":11060936289_7" function="internal">
        <lane id=":11060936289_7_0" index="0" disallow="tram rail_urban rail rail_electric rail_fast ship container cable_car subway aircraft wheelchair scooter drone" speed="13.89" length="8.10" shape="2982.67,3093.45 2990.75,3092.96"/>
    </edge>
    <edge id=":11060936289_8" function="internal">
        <lane id=":11060936289_8_0" index="0" disallow="tram rail_urban rail rail_electric rail_fast ship container cable_car subway aircraft wheelchair scooter drone" speed="3.65" length="1.44" shape="2982.67,3093.45 2983.92,3094.17"/>
    </edge>
    <edge id=":11060936289_11" function="internal">
        <lane id=":11060936289_11_0" index="0" disallow="tram rail_urban rail rail_electric rail_fast ship container cable_car subway aircraft wheelchair scooter drone" speed="3.65" length="3.23" shape="2983.92,3094.17 2984.36,3094.95 2984.01,3095.77 2982.86,3096.64"/>
    </edge>
    <edge id=":11060936293_0" function="internal">
        <lane id=":11060936293_0_0" index="0" disallow="tram rail_urban rail rail_electric rail_fast ship container cable_car subway aircraft wheelchair scooter drone" speed="3.65" length="4.67" shape="3035.87,3062.81 3037.17,3063.45 3037.67,3064.19 3037.37,3065.04 3036.29,3065.99"/>
    </edge>
    <edge id=":11061071863_0" function="internal">
        <lane id=":11061071863_0_0" index="0" disallow="tram rail_urban rail rail_electric rail_fast ship container cable_car subway aircraft wheelchair scooter drone" speed="6.60" length="9.13" shape="2965.28,3299.17 2962.79,3299.52 2960.98,3300.56 2959.87,3302.30 2959.46,3304.73"/>
    </edge>
    <edge id=":11061071863_1" function="internal">
        <lane id=":11061071863_1_0" index="0" disallow="tram rail_urban rail rail_electric rail_fast ship container cable_car subway aircraft wheelchair scooter drone" speed="7.98" length="14.24" shape="2965.28,3299.17 2961.41,3298.62 2958.66,3296.96 2957.04,3294.19 2956.53,3290.31"/>
    </edge>
    <edge id=":11061071863_2" function="internal">
        <lane id=":11061071863_2_0" index="0" disallow="tram rail_urban rail rail_electric rail_fast ship container cable_car subway aircraft wheelchair scooter drone" speed="2.78" length="4.67" shape="2965.28,3299.17 2964.08,3298.37 2963.68,3297.57 2964.08,3296.77 2965.28,3295.97"/>
    </edge>
    <edge id=":11061071863_3" function="internal">
        <lane id=":11061071863_3_0" index="0" disallow="tram rail_urban rail rail_electric rail_fast ship container cable_car subway aircraft wheelchair scooter drone" speed="6.48" length="9.03" shape="2959.73,3290.35 2960.05,3292.81 2961.08,3294.57 2962.83,3295.62 2965.28,3295.97"/>
    </edge>
    <edge id=":11061071863_4" function="internal">
        <lane id=":11061071863_4_0" index="0" disallow="tram rail_urban rail rail_electric rail_fast ship container cable_car subway aircraft wheelchair scooter drone" speed="13.89" length="14.38" shape="2959.73,3290.35 2959.46,3304.73"/>
    </edge>
    <edge id=":11061071863_5" function="internal">
        <lane id=":11061071863_5_0" index="0" disallow="tram rail_urban rail rail_electric rail_fast ship container cable_car subway aircraft wheelchair scooter drone" speed="3.65" length="1.44" shape="2959.73,3290.35 2958.92,3291.54"/>
    </edge>
    <edge id=":11061071863_9" function="internal">
        <lane id=":11061071863_9_0" index="0" disallow="tram rail_urban rail rail_electric rail_fast ship container cable_car subway aircraft wheelchair scooter drone" speed="3.65" length="3.23" shape="2958.92,3291.54 2958.11,3291.93 2957.32,3291.52 2956.53,3290.31"/>
    </edge>
    <edge id=":11061071863_6" function="internal">
        <lane id=":11061071863_6_0" index="0" disallow="tram rail_urban rail rail_electric rail_fast ship container cable_car subway aircraft wheelchair scooter drone" speed="13.89" length="14.34" shape="2956.26,3304.65 2956.53,3290.31"/>
    </edge>
    <edge id=":11061071863_7" function="internal">
        <lane id=":11061071863_7_0" index="0" disallow="tram rail_urban rail rail_electric rail_fast ship container cable_car subway aircraft wheelchair scooter drone" speed="8.08" length="3.98" shape="2956.26,3304.65 2956.91,3300.85 2956.98,3300.74"/>
    </edge>
    <edge id=":11061071863_8" function="internal">
        <lane id=":11061071863_8_0" index="0" disallow="tram rail_urban rail rail_electric rail_fast ship container cable_car subway aircraft wheelchair scooter drone" speed="3.65" length="1.44" shape="2956.26,3304.65 2957.09,3303.47"/>
    </edge>
    <edge id=":11061071863_10" function="internal">
        <lane id=":11061071863_10_0" index="0" disallow="tram rail_urban rail rail_electric rail_fast ship container cable_car subway aircraft wheelchair scooter drone" speed="8.08" length="10.21" shape="2956.98,3300.74 2958.62,3298.14 2961.42,3296.51 2965.28,3295.97"/>
    </edge>
    <edge id=":11061071863_11" function="internal">